gld_dss_conversion/trial_5/python/trial.txt
New Load.trip_load_680_A_h_1 Bus1=trip_load_680_A_h_1.1.0 phases=1 Conn=Wye kV=0.12 kW=3.0 kvar=0.0
New Load.trip_load_680_A_h_2 Bus1=trip_load_680_A_h_2.1.0 phases=1 Conn=Wye kV=0.12 kW=3.0 kvar=0.0
New Load.trip_load_680_A_h_3 Bus1=trip_load_680_A_h_3.1.0 phases=1 Conn=Wye kV=0.12 kW=3.0 kvar=0.0
New Load.trip_load_680_A_h_4 Bus1=trip_load_680_A_h_4.1.0 phases=1 Conn=Wye kV=0.12 kW=3.0 kvar=0.0
New Load.trip_load_680_A_h_5 Bus1=trip_load_680_A_h_5.1.0 phases=1 Conn=Wye kV=0.12 kW=3.0 kvar=0.0
New Load.trip_load_680_A_h_6 Bus1=trip_load_680_A_h_6.1.0 phases=1 Conn=Wye kV=0.12 kW=3.0 kvar=0.0
New Load.trip_load_680_A_h_7 Bus1=trip_load_680_A_h_7.1.0 phases=1 Conn=Wye kV=0.12 kW=3.0 kvar=0.0
New Load.trip_load_680_A_h_8 Bus1=trip_load_680_A_h_8.1.0 phases=1 Conn=Wye kV=0.12 kW=3.0 kvar=0.0
New Load.trip_load_680_A_h_9 Bus1=trip_load_680_A_h_9.1.0 phases=1 Conn=Wye kV=0.12 kW=3.0 kvar=0.0
New Load.trip_load_680_A_h_10 Bus1=trip_load_680_A_h_10.1.0 phases=1 Conn=Wye kV=0.12 kW=3.0 kvar=0.0
New Load.trip_load_680_A_h_11 Bus1=trip_load_680_A_h_11.1.0 phases=1 Conn=Wye kV=0.12 kW=3.0 kvar=0.0
New Load.trip_load_680_A_h_12 Bus1=trip_load_680_A_h_12.1.0 phases=1 Conn=Wye kV=0.12 kW=3.0 kvar=0.0
New Load.trip_load_680_A_h_13 Bus1=trip_load_680_A_h_13.1.0 phases=1 Conn=Wye kV=0.12 kW=3.0 kvar=0.0
New Load.trip_load_680_A_h_14 Bus1=trip_load_680_A_h_14.1.0 phases=1 Conn=Wye kV=0.12 kW=3.0 kvar=0.0
New Load.trip_load_680_A_h_15 Bus1=trip_load_680_A_h_15.1.0 phases=1 Conn=Wye kV=0.12 kW=3.0 kvar=0.0
New Load.trip_load_680_A_h_16 Bus1=trip_load_680_A_h_16.1.0 phases=1 Conn=Wye kV=0.12 kW=3.0 kvar=0.0
New Load.trip_load_680_A_h_17 Bus1=trip_load_680_A_h_17.1.0 phases=1 Conn=Wye kV=0.12 kW=3.0 kvar=0.0
New Load.trip_load_680_A_h_18 Bus1=trip_load_680_A_h_18.1.0 phases=1 Conn=Wye kV=0.12 kW=3.0 kvar=0.0
New Load.trip_load_680_A_h_19 Bus1=trip_load_680_A_h_19.1.0 phases=1 Conn=Wye kV=0.12 kW=3.0 kvar=0.0
New Load.trip_load_680_A_h_20 Bus1=trip_load_680_A_h_20.1.0 phases=1 Conn=Wye kV=0.12 kW=3.0 kvar=0.0
New Load.trip_load_680_A_h_21 Bus1=trip_load_680_A_h_21.1.0 phases=1 Conn=Wye kV=0.12 kW=3.0 kvar=0.0
New Load.trip_load_680_A_h_22 Bus1=trip_load_680_A_h_22.1.0 phases=1 Conn=Wye kV=0.12 kW=3.0 kvar=0.0
New Load.trip_load_680_A_h_23 Bus1=trip_load_680_A_h_23.1.0 phases=1 Conn=Wye kV=0.12 kW=3.0 kvar=0.0
New Load.trip_load_680_A_h_24 Bus1=trip_load_680_A_h_24.1.0 phases=1 Conn=Wye kV=0.12 kW=3.0 kvar=0.0
New Load.trip_load_680_A_h_25 Bus1=trip_load_680_A_h_25.1.0 phases=1 Conn=Wye kV=0.12 kW=3.0 kvar=0.0
New Load.trip_load_680_A_h_26 Bus1=trip_load_680_A_h_26.1.0 phases=1 Conn=Wye kV=0.12 kW=3.0 kvar=0.0
New Load.trip_load_680_A_h_27 Bus1=trip_load_680_A_h_27.1.0 phases=1 Conn=Wye kV=0.12 kW=3.0 kvar=0.0
New Load.trip_load_680_A_h_28 Bus1=trip_load_680_A_h_28.1.0 phases=1 Conn=Wye kV=0.12 kW=3.0 kvar=0.0
New Load.trip_load_680_A_h_29 Bus1=trip_load_680_A_h_29.1.0 phases=1 Conn=Wye kV=0.12 kW=3.0 kvar=0.0
New Load.trip_load_680_A_h_30 Bus1=trip_load_680_A_h_30.1.0 phases=1 Conn=Wye kV=0.12 kW=3.0 kvar=0.0
New Load.trip_load_680_A_h_31 Bus1=trip_load_680_A_h_31.1.0 phases=1 Conn=Wye kV=0.12 kW=3.0 kvar=0.0
New Load.trip_load_680_A_h_32 Bus1=trip_load_680_A_h_32.1.0 phases=1 Conn=Wye kV=0.12 kW=3.0 kvar=0.0
New Load.trip_load_680_A_h_33 Bus1=trip_load_680_A_h_33.1.0 phases=1 Conn=Wye kV=0.12 kW=3.0 kvar=0.0
New Load.trip_load_680_A_h_34 Bus1=trip_load_680_A_h_34.1.0 phases=1 Conn=Wye kV=0.12 kW=3.0 kvar=0.0
New Load.trip_load_680_A_h_35 Bus1=trip_load_680_A_h_35.1.0 phases=1 Conn=Wye kV=0.12 kW=3.0 kvar=0.0
New Load.trip_load_680_A_h_36 Bus1=trip_load_680_A_h_36.1.0 phases=1 Conn=Wye kV=0.12 kW=3.0 kvar=0.0
New Load.trip_load_680_A_h_37 Bus1=trip_load_680_A_h_37.1.0 phases=1 Conn=Wye kV=0.12 kW=3.0 kvar=0.0
New Load.trip_load_680_A_h_38 Bus1=trip_load_680_A_h_38.1.0 phases=1 Conn=Wye kV=0.12 kW=3.0 kvar=0.0
New Load.trip_load_680_A_h_39 Bus1=trip_load_680_A_h_39.1.0 phases=1 Conn=Wye kV=0.12 kW=3.0 kvar=0.0
New Load.trip_load_680_A_h_40 Bus1=trip_load_680_A_h_40.1.0 phases=1 Conn=Wye kV=0.12 kW=3.0 kvar=0.0
New Load.trip_load_633_A_h_1 Bus1=trip_load_633_A_h_1.1.0 phases=1 Conn=Wye kV=0.12 kW=3.0 kvar=0.0
New Load.trip_load_633_A_h_2 Bus1=trip_load_633_A_h_2.1.0 phases=1 Conn=Wye kV=0.12 kW=3.0 kvar=0.0
New Load.trip_load_633_A_h_3 Bus1=trip_load_633_A_h_3.1.0 phases=1 Conn=Wye kV=0.12 kW=3.0 kvar=0.0
New Load.trip_load_633_A_h_4 Bus1=trip_load_633_A_h_4.1.0 phases=1 Conn=Wye kV=0.12 kW=3.0 kvar=0.0
New Load.trip_load_633_A_h_5 Bus1=trip_load_633_A_h_5.1.0 phases=1 Conn=Wye kV=0.12 kW=3.0 kvar=0.0
New Load.trip_load_633_A_h_6 Bus1=trip_load_633_A_h_6.1.0 phases=1 Conn=Wye kV=0.12 kW=3.0 kvar=0.0
New Load.trip_load_633_A_h_7 Bus1=trip_load_633_A_h_7.1.0 phases=1 Conn=Wye kV=0.12 kW=3.0 kvar=0.0
New Load.trip_load_633_A_h_8 Bus1=trip_load_633_A_h_8.1.0 phases=1 Conn=Wye kV=0.12 kW=3.0 kvar=0.0
New Load.trip_load_633_A_h_9 Bus1=trip_load_633_A_h_9.1.0 phases=1 Conn=Wye kV=0.12 kW=3.0 kvar=0.0
New Load.trip_load_633_A_h_10 Bus1=trip_load_633_A_h_10.1.0 phases=1 Conn=Wye kV=0.12 kW=3.0 kvar=0.0
New Load.trip_load_633_A_h_11 Bus1=trip_load_633_A_h_11.1.0 phases=1 Conn=Wye kV=0.12 kW=3.0 kvar=0.0
New Load.trip_load_633_A_h_12 Bus1=trip_load_633_A_h_12.1.0 phases=1 Conn=Wye kV=0.12 kW=3.0 kvar=0.0
New Load.trip_load_633_A_h_13 Bus1=trip_load_633_A_h_13.1.0 phases=1 Conn=Wye kV=0.12 kW=3.0 kvar=0.0
New Load.trip_load_633_A_h_14 Bus1=trip_load_633_A_h_14.1.0 phases=1 Conn=Wye kV=0.12 kW=3.0 kvar=0.0
New Load.trip_load_633_A_h_15 Bus1=trip_load_633_A_h_15.1.0 phases=1 Conn=Wye kV=0.12 kW=3.0 kvar=0.0
New Load.trip_load_633_A_h_16 Bus1=trip_load_633_A_h_16.1.0 phases=1 Conn=Wye kV=0.12 kW=3.0 kvar=0.0
New Load.trip_load_633_A_h_17 Bus1=trip_load_633_A_h_17.1.0 phases=1 Conn=Wye kV=0.12 kW=3.0 kvar=0.0
New Load.trip_load_633_A_h_18 Bus1=trip_load_633_A_h_18.1.0 phases=1 Conn=Wye kV=0.12 kW=3.0 kvar=0.0
New Load.trip_load_633_A_h_19 Bus1=trip_load_633_A_h_19.1.0 phases=1 Conn=Wye kV=0.12 kW=3.0 kvar=0.0
New Load.trip_load_633_A_h_20 Bus1=trip_load_633_A_h_20.1.0 phases=1 Conn=Wye kV=0.12 kW=3.0 kvar=0.0
New Load.trip_load_633_A_h_21 Bus1=trip_load_633_A_h_21.1.0 phases=1 Conn=Wye kV=0.12 kW=3.0 kvar=0.0
New Load.trip_load_633_A_h_22 Bus1=trip_load_633_A_h_22.1.0 phases=1 Conn=Wye kV=0.12 kW=3.0 kvar=0.0
New Load.trip_load_633_A_h_23 Bus1=trip_load_633_A_h_23.1.0 phases=1 Conn=Wye kV=0.12 kW=3.0 kvar=0.0
New Load.trip_load_633_A_h_24 Bus1=trip_load_633_A_h_24.1.0 phases=1 Conn=Wye kV=0.12 kW=3.0 kvar=0.0
New Load.trip_load_633_A_h_25 Bus1=trip_load_633_A_h_25.1.0 phases=1 Conn=Wye kV=0.12 kW=3.0 kvar=0.0
New Load.trip_load_633_A_h_26 Bus1=trip_load_633_A_h_26.1.0 phases=1 Conn=Wye kV=0.12 kW=3.0 kvar=0.0
New Load.trip_load_633_A_h_27 Bus1=trip_load_633_A_h_27.1.0 phases=1 Conn=Wye kV=0.12 kW=3.0 kvar=0.0
New Load.trip_load_633_A_h_28 Bus1=trip_load_633_A_h_28.1.0 phases=1 Conn=Wye kV=0.12 kW=3.0 kvar=0.0
New Load.trip_load_633_A_h_29 Bus1=trip_load_633_A_h_29.1.0 phases=1 Conn=Wye kV=0.12 kW=3.0 kvar=0.0
New Load.trip_load_633_A_h_30 Bus1=trip_load_633_A_h_30.1.0 phases=1 Conn=Wye kV=0.12 kW=3.0 kvar=0.0
New Load.trip_load_633_A_h_31 Bus1=trip_load_633_A_h_31.1.0 phases=1 Conn=Wye kV=0.12 kW=3.0 kvar=0.0
New Load.trip_load_633_A_h_32 Bus1=trip_load_633_A_h_32.1.0 phases=1 Conn=Wye kV=0.12 kW=3.0 kvar=0.0
New Load.trip_load_633_A_h_33 Bus1=trip_load_633_A_h_33.1.0 phases=1 Conn=Wye kV=0.12 kW=3.0 kvar=0.0
New Load.trip_load_633_A_h_34 Bus1=trip_load_633_A_h_34.1.0 phases=1 Conn=Wye kV=0.12 kW=3.0 kvar=0.0
New Load.trip_load_633_A_h_35 Bus1=trip_load_633_A_h_35.1.0 phases=1 Conn=Wye kV=0.12 kW=3.0 kvar=0.0
New Load.trip_load_633_A_h_36 Bus1=trip_load_633_A_h_36.1.0 phases=1 Conn=Wye kV=0.12 kW=3.0 kvar=0.0
New Load.trip_load_633_A_h_37 Bus1=trip_load_633_A_h_37.1.0 phases=1 Conn=Wye kV=0.12 kW=3.0 kvar=0.0
New Load.trip_load_633_A_h_38 Bus1=trip_load_633_A_h_38.1.0 phases=1 Conn=Wye kV=0.12 kW=3.0 kvar=0.0
New Load.trip_load_633_A_h_39 Bus1=trip_load_633_A_h_39.1.0 phases=1 Conn=Wye kV=0.12 kW=3.0 kvar=0.0
New Load.trip_load_633_A_h_40 Bus1=trip_load_633_A_h_40.1.0 phases=1 Conn=Wye kV=0.12 kW=3.0 kvar=0.0
New Load.trip_load_632_A_h_1 Bus1=trip_load_632_A_h_1.1.0 phases=1 Conn=Wye kV=0.12 kW=3.0 kvar=0.0
New Load.trip_load_632_A_h_2 Bus1=trip_load_632_A_h_2.1.0 phases=1 Conn=Wye kV=0.12 kW=3.0 kvar=0.0
New Load.trip_load_632_A_h_3 Bus1=trip_load_632_A_h_3.1.0 phases=1 Conn=Wye kV=0.12 kW=3.0 kvar=0.0
New Load.trip_load_632_A_h_4 Bus1=trip_load_632_A_h_4.1.0 phases=1 Conn=Wye kV=0.12 kW=3.0 kvar=0.0
New Load.trip_load_632_A_h_5 Bus1=trip_load_632_A_h_5.1.0 phases=1 Conn=Wye kV=0.12 kW=3.0 kvar=0.0
New Load.trip_load_632_A_h_6 Bus1=trip_load_632_A_h_6.1.0 phases=1 Conn=Wye kV=0.12 kW=3.0 kvar=0.0
New Load.trip_load_632_A_h_7 Bus1=trip_load_632_A_h_7.1.0 phases=1 Conn=Wye kV=0.12 kW=3.0 kvar=0.0
New Load.trip_load_632_A_h_8 Bus1=trip_load_632_A_h_8.1.0 phases=1 Conn=Wye kV=0.12 kW=3.0 kvar=0.0
New Load.trip_load_632_A_h_9 Bus1=trip_load_632_A_h_9.1.0 phases=1 Conn=Wye kV=0.12 kW=3.0 kvar=0.0
New Load.trip_load_632_A_h_10 Bus1=trip_load_632_A_h_10.1.0 phases=1 Conn=Wye kV=0.12 kW=3.0 kvar=0.0
New Load.trip_load_632_A_h_11 Bus1=trip_load_632_A_h_11.1.0 phases=1 Conn=Wye kV=0.12 kW=3.0 kvar=0.0
New Load.trip_load_632_A_h_12 Bus1=trip_load_632_A_h_12.1.0 phases=1 Conn=Wye kV=0.12 kW=3.0 kvar=0.0
New Load.trip_load_632_A_h_13 Bus1=trip_load_632_A_h_13.1.0 phases=1 Conn=Wye kV=0.12 kW=3.0 kvar=0.0
New Load.trip_load_632_A_h_14 Bus1=trip_load_632_A_h_14.1.0 phases=1 Conn=Wye kV=0.12 kW=3.0 kvar=0.0
New Load.trip_load_632_A_h_15 Bus1=trip_load_632_A_h_15.1.0 phases=1 Conn=Wye kV=0.12 kW=3.0 kvar=0.0
New Load.trip_load_632_A_h_16 Bus1=trip_load_632_A_h_16.1.0 phases=1 Conn=Wye kV=0.12 kW=3.0 kvar=0.0
New Load.trip_load_632_A_h_17 Bus1=trip_load_632_A_h_17.1.0 phases=1 Conn=Wye kV=0.12 kW=3.0 kvar=0.0
New Load.trip_load_632_A_h_18 Bus1=trip_load_632_A_h_18.1.0 phases=1 Conn=Wye kV=0.12 kW=3.0 kvar=0.0
New Load.trip_load_632_A_h_19 Bus1=trip_load_632_A_h_19.1.0 phases=1 Conn=Wye kV=0.12 kW=3.0 kvar=0.0
New Load.trip_load_632_A_h_20 Bus1=trip_load_632_A_h_20.1.0 phases=1 Conn=Wye kV=0.12 kW=3.0 kvar=0.0
New Load.trip_load_632_A_h_21 Bus1=trip_load_632_A_h_21.1.0 phases=1 Conn=Wye kV=0.12 kW=3.0 kvar=0.0
New Load.trip_load_632_A_h_22 Bus1=trip_load_632_A_h_22.1.0 phases=1 Conn=Wye kV=0.12 kW=3.0 kvar=0.0
New Load.trip_load_632_A_h_23 Bus1=trip_load_632_A_h_23.1.0 phases=1 Conn=Wye kV=0.12 kW=3.0 kvar=0.0
New Load.trip_load_632_A_h_24 Bus1=trip_load_632_A_h_24.1.0 phases=1 Conn=Wye kV=0.12 kW=3.0 kvar=0.0
New Load.trip_load_632_A_h_25 Bus1=trip_load_632_A_h_25.1.0 phases=1 Conn=Wye kV=0.12 kW=3.0 kvar=0.0
New Load.trip_load_632_A_h_26 Bus1=trip_load_632_A_h_26.1.0 phases=1 Conn=Wye kV=0.12 kW=3.0 kvar=0.0
New Load.trip_load_632_A_h_27 Bus1=trip_load_632_A_h_27.1.0 phases=1 Conn=Wye kV=0.12 kW=3.0 kvar=0.0
New Load.trip_load_632_A_h_28 Bus1=trip_load_632_A_h_28.1.0 phases=1 Conn=Wye kV=0.12 kW=3.0 kvar=0.0
New Load.trip_load_632_A_h_29 Bus1=trip_load_632_A_h_29.1.0 phases=1 Conn=Wye kV=0.12 kW=3.0 kvar=0.0
New Load.trip_load_632_A_h_30 Bus1=trip_load_632_A_h_30.1.0 phases=1 Conn=Wye kV=0.12 kW=3.0 kvar=0.0
New Load.trip_load_632_A_h_31 Bus1=trip_load_632_A_h_31.1.0 phases=1 Conn=Wye kV=0.12 kW=3.0 kvar=0.0
New Load.trip_load_632_A_h_32 Bus1=trip_load_632_A_h_32.1.0 phases=1 Conn=Wye kV=0.12 kW=3.0 kvar=0.0
New Load.trip_load_632_A_h_33 Bus1=trip_load_632_A_h_33.1.0 phases=1 Conn=Wye kV=0.12 kW=3.0 kvar=0.0
New Load.trip_load_632_A_h_34 Bus1=trip_load_632_A_h_34.1.0 phases=1 Conn=Wye kV=0.12 kW=3.0 kvar=0.0
New Load.trip_load_632_A_h_35 Bus1=trip_load_632_A_h_35.1.0 phases=1 Conn=Wye kV=0.12 kW=3.0 kvar=0.0
New Load.trip_load_632_A_h_36 Bus1=trip_load_632_A_h_36.1.0 phases=1 Conn=Wye kV=0.12 kW=3.0 kvar=0.0
New Load.trip_load_632_A_h_37 Bus1=trip_load_632_A_h_37.1.0 phases=1 Conn=Wye kV=0.12 kW=3.0 kvar=0.0
New Load.trip_load_632_A_h_38 Bus1=trip_load_632_A_h_38.1.0 phases=1 Conn=Wye kV=0.12 kW=3.0 kvar=0.0
New Load.trip_load_632_A_h_39 Bus1=trip_load_632_A_h_39.1.0 phases=1 Conn=Wye kV=0.12 kW=3.0 kvar=0.0
New Load.trip_load_632_A_h_40 Bus1=trip_load_632_A_h_40.1.0 phases=1 Conn=Wye kV=0.12 kW=3.0 kvar=0.0
New Load.trip_load_692_A_h_1 Bus1=trip_load_692_A_h_1.1.0 phases=1 Conn=Wye kV=0.12 kW=3.0 kvar=0.0
New Load.trip_load_692_A_h_2 Bus1=trip_load_692_A_h_2.1.0 phases=1 Conn=Wye kV=0.12 kW=3.0 kvar=0.0
New Load.trip_load_692_A_h_3 Bus1=trip_load_692_A_h_3.1.0 phases=1 Conn=Wye kV=0.12 kW=3.0 kvar=0.0
New Load.trip_load_692_A_h_4 Bus1=trip_load_692_A_h_4.1.0 phases=1 Conn=Wye kV=0.12 kW=3.0 kvar=0.0
New Load.trip_load_692_A_h_5 Bus1=trip_load_692_A_h_5.1.0 phases=1 Conn=Wye kV=0.12 kW=3.0 kvar=0.0
New Load.trip_load_692_A_h_6 Bus1=trip_load_692_A_h_6.1.0 phases=1 Conn=Wye kV=0.12 kW=3.0 kvar=0.0
New Load.trip_load_692_A_h_7 Bus1=trip_load_692_A_h_7.1.0 phases=1 Conn=Wye kV=0.12 kW=3.0 kvar=0.0
New Load.trip_load_692_A_h_8 Bus1=trip_load_692_A_h_8.1.0 phases=1 Conn=Wye kV=0.12 kW=3.0 kvar=0.0
New Load.trip_load_692_A_h_9 Bus1=trip_load_692_A_h_9.1.0 phases=1 Conn=Wye kV=0.12 kW=3.0 kvar=0.0
New Load.trip_load_692_A_h_10 Bus1=trip_load_692_A_h_10.1.0 phases=1 Conn=Wye kV=0.12 kW=3.0 kvar=0.0
New Load.trip_load_692_A_h_11 Bus1=trip_load_692_A_h_11.1.0 phases=1 Conn=Wye kV=0.12 kW=3.0 kvar=0.0
New Load.trip_load_692_A_h_12 Bus1=trip_load_692_A_h_12.1.0 phases=1 Conn=Wye kV=0.12 kW=3.0 kvar=0.0
New Load.trip_load_692_A_h_13 Bus1=trip_load_692_A_h_13.1.0 phases=1 Conn=Wye kV=0.12 kW=3.0 kvar=0.0
New Load.trip_load_692_A_h_14 Bus1=trip_load_692_A_h_14.1.0 phases=1 Conn=Wye kV=0.12 kW=3.0 kvar=0.0
New Load.trip_load_692_A_h_15 Bus1=trip_load_692_A_h_15.1.0 phases=1 Conn=Wye kV=0.12 kW=3.0 kvar=0.0
New Load.trip_load_692_A_h_16 Bus1=trip_load_692_A_h_16.1.0 phases=1 Conn=Wye kV=0.12 kW=3.0 kvar=0.0
New Load.trip_load_692_A_h_17 Bus1=trip_load_692_A_h_17.1.0 phases=1 Conn=Wye kV=0.12 kW=3.0 kvar=0.0
New Load.trip_load_692_A_h_18 Bus1=trip_load_692_A_h_18.1.0 phases=1 Conn=Wye kV=0.12 kW=3.0 kvar=0.0
New Load.trip_load_692_A_h_19 Bus1=trip_load_692_A_h_19.1.0 phases=1 Conn=Wye kV=0.12 kW=3.0 kvar=0.0
New Load.trip_load_692_A_h_20 Bus1=trip_load_692_A_h_20.1.0 phases=1 Conn=Wye kV=0.12 kW=3.0 kvar=0.0
New Load.trip_load_692_A_h_21 Bus1=trip_load_692_A_h_21.1.0 phases=1 Conn=Wye kV=0.12 kW=3.0 kvar=0.0
New Load.trip_load_692_A_h_22 Bus1=trip_load_692_A_h_22.1.0 phases=1 Conn=Wye kV=0.12 kW=3.0 kvar=0.0
New Load.trip_load_692_A_h_23 Bus1=trip_load_692_A_h_23.1.0 phases=1 Conn=Wye kV=0.12 kW=3.0 kvar=0.0
New Load.trip_load_692_A_h_24 Bus1=trip_load_692_A_h_24.1.0 phases=1 Conn=Wye kV=0.12 kW=3.0 kvar=0.0
New Load.trip_load_692_A_h_25 Bus1=trip_load_692_A_h_25.1.0 phases=1 Conn=Wye kV=0.12 kW=3.0 kvar=0.0
New Load.trip_load_692_A_h_26 Bus1=trip_load_692_A_h_26.1.0 phases=1 Conn=Wye kV=0.12 kW=3.0 kvar=0.0
New Load.trip_load_692_A_h_27 Bus1=trip_load_692_A_h_27.1.0 phases=1 Conn=Wye kV=0.12 kW=3.0 kvar=0.0
New Load.trip_load_692_A_h_28 Bus1=trip_load_692_A_h_28.1.0 phases=1 Conn=Wye kV=0.12 kW=3.0 kvar=0.0
New Load.trip_load_692_A_h_29 Bus1=trip_load_692_A_h_29.1.0 phases=1 Conn=Wye kV=0.12 kW=3.0 kvar=0.0
New Load.trip_load_692_A_h_30 Bus1=trip_load_692_A_h_30.1.0 phases=1 Conn=Wye kV=0.12 kW=3.0 kvar=0.0
New Load.trip_load_692_A_h_31 Bus1=trip_load_692_A_h_31.1.0 phases=1 Conn=Wye kV=0.12 kW=3.0 kvar=0.0
New Load.trip_load_692_A_h_32 Bus1=trip_load_692_A_h_32.1.0 phases=1 Conn=Wye kV=0.12 kW=3.0 kvar=0.0
New Load.trip_load_692_A_h_33 Bus1=trip_load_692_A_h_33.1.0 phases=1 Conn=Wye kV=0.12 kW=3.0 kvar=0.0
New Load.trip_load_692_A_h_34 Bus1=trip_load_692_A_h_34.1.0 phases=1 Conn=Wye kV=0.12 kW=3.0 kvar=0.0
New Load.trip_load_692_A_h_35 Bus1=trip_load_692_A_h_35.1.0 phases=1 Conn=Wye kV=0.12 kW=3.0 kvar=0.0
New Load.trip_load_692_A_h_36 Bus1=trip_load_692_A_h_36.1.0 phases=1 Conn=Wye kV=0.12 kW=3.0 kvar=0.0
New Load.trip_load_692_A_h_37 Bus1=trip_load_692_A_h_37.1.0 phases=1 Conn=Wye kV=0.12 kW=3.0 kvar=0.0
New Load.trip_load_692_A_h_38 Bus1=trip_load_692_A_h_38.1.0 phases=1 Conn=Wye kV=0.12 kW=3.0 kvar=0.0
New Load.trip_load_692_A_h_39 Bus1=trip_load_692_A_h_39.1.0 phases=1 Conn=Wye kV=0.12 kW=3.0 kvar=0.0
New Load.trip_load_692_A_h_40 Bus1=trip_load_692_A_h_40.1.0 phases=1 Conn=Wye kV=0.12 kW=3.0 kvar=0.0
New Load.trip_load_675_A_h_1 Bus1=trip_load_675_A_h_1.1.0 phases=1 Conn=Wye kV=0.12 kW=3.0 kvar=0.0
New Load.trip_load_675_A_h_2 Bus1=trip_load_675_A_h_2.1.0 phases=1 Conn=Wye kV=0.12 kW=3.0 kvar=0.0
New Load.trip_load_675_A_h_3 Bus1=trip_load_675_A_h_3.1.0 phases=1 Conn=Wye kV=0.12 kW=3.0 kvar=0.0
New Load.trip_load_675_A_h_4 Bus1=trip_load_675_A_h_4.1.0 phases=1 Conn=Wye kV=0.12 kW=3.0 kvar=0.0
New Load.trip_load_675_A_h_5 Bus1=trip_load_675_A_h_5.1.0 phases=1 Conn=Wye kV=0.12 kW=3.0 kvar=0.0
New Load.trip_load_675_A_h_6 Bus1=trip_load_675_A_h_6.1.0 phases=1 Conn=Wye kV=0.12 kW=3.0 kvar=0.0
New Load.trip_load_675_A_h_7 Bus1=trip_load_675_A_h_7.1.0 phases=1 Conn=Wye kV=0.12 kW=3.0 kvar=0.0
New Load.trip_load_675_A_h_8 Bus1=trip_load_675_A_h_8.1.0 phases=1 Conn=Wye kV=0.12 kW=3.0 kvar=0.0
New Load.trip_load_675_A_h_9 Bus1=trip_load_675_A_h_9.1.0 phases=1 Conn=Wye kV=0.12 kW=3.0 kvar=0.0
New Load.trip_load_675_A_h_10 Bus1=trip_load_675_A_h_10.1.0 phases=1 Conn=Wye kV=0.12 kW=3.0 kvar=0.0
New Load.trip_load_675_A_h_11 Bus1=trip_load_675_A_h_11.1.0 phases=1 Conn=Wye kV=0.12 kW=3.0 kvar=0.0
New Load.trip_load_675_A_h_12 Bus1=trip_load_675_A_h_12.1.0 phases=1 Conn=Wye kV=0.12 kW=3.0 kvar=0.0
New Load.trip_load_675_A_h_13 Bus1=trip_load_675_A_h_13.1.0 phases=1 Conn=Wye kV=0.12 kW=3.0 kvar=0.0
New Load.trip_load_675_A_h_14 Bus1=trip_load_675_A_h_14.1.0 phases=1 Conn=Wye kV=0.12 kW=3.0 kvar=0.0
New Load.trip_load_675_A_h_15 Bus1=trip_load_675_A_h_15.1.0 phases=1 Conn=Wye kV=0.12 kW=3.0 kvar=0.0
New Load.trip_load_675_A_h_16 Bus1=trip_load_675_A_h_16.1.0 phases=1 Conn=Wye kV=0.12 kW=3.0 kvar=0.0
New Load.trip_load_675_A_h_17 Bus1=trip_load_675_A_h_17.1.0 phases=1 Conn=Wye kV=0.12 kW=3.0 kvar=0.0
New Load.trip_load_675_A_h_18 Bus1=trip_load_675_A_h_18.1.0 phases=1 Conn=Wye kV=0.12 kW=3.0 kvar=0.0
New Load.trip_load_675_A_h_19 Bus1=trip_load_675_A_h_19.1.0 phases=1 Conn=Wye kV=0.12 kW=3.0 kvar=0.0
New Load.trip_load_675_A_h_20 Bus1=trip_load_675_A_h_20.1.0 phases=1 Conn=Wye kV=0.12 kW=3.0 kvar=0.0
New Load.trip_load_675_A_h_21 Bus1=trip_load_675_A_h_21.1.0 phases=1 Conn=Wye kV=0.12 kW=3.0 kvar=0.0
New Load.trip_load_675_A_h_22 Bus1=trip_load_675_A_h_22.1.0 phases=1 Conn=Wye kV=0.12 kW=3.0 kvar=0.0
New Load.trip_load_675_A_h_23 Bus1=trip_load_675_A_h_23.1.0 phases=1 Conn=Wye kV=0.12 kW=3.0 kvar=0.0
New Load.trip_load_675_A_h_24 Bus1=trip_load_675_A_h_24.1.0 phases=1 Conn=Wye kV=0.12 kW=3.0 kvar=0.0
New Load.trip_load_675_A_h_25 Bus1=trip_load_675_A_h_25.1.0 phases=1 Conn=Wye kV=0.12 kW=3.0 kvar=0.0
New Load.trip_load_675_A_h_26 Bus1=trip_load_675_A_h_26.1.0 phases=1 Conn=Wye kV=0.12 kW=3.0 kvar=0.0
New Load.trip_load_675_A_h_27 Bus1=trip_load_675_A_h_27.1.0 phases=1 Conn=Wye kV=0.12 kW=3.0 kvar=0.0
New Load.trip_load_675_A_h_28 Bus1=trip_load_675_A_h_28.1.0 phases=1 Conn=Wye kV=0.12 kW=3.0 kvar=0.0
New Load.trip_load_675_A_h_29 Bus1=trip_load_675_A_h_29.1.0 phases=1 Conn=Wye kV=0.12 kW=3.0 kvar=0.0
New Load.trip_load_675_A_h_30 Bus1=trip_load_675_A_h_30.1.0 phases=1 Conn=Wye kV=0.12 kW=3.0 kvar=0.0
New Load.trip_load_675_A_h_31 Bus1=trip_load_675_A_h_31.1.0 phases=1 Conn=Wye kV=0.12 kW=3.0 kvar=0.0
New Load.trip_load_675_A_h_32 Bus1=trip_load_675_A_h_32.1.0 phases=1 Conn=Wye kV=0.12 kW=3.0 kvar=0.0
New Load.trip_load_675_A_h_33 Bus1=trip_load_675_A_h_33.1.0 phases=1 Conn=Wye kV=0.12 kW=3.0 kvar=0.0
New Load.trip_load_675_A_h_34 Bus1=trip_load_675_A_h_34.1.0 phases=1 Conn=Wye kV=0.12 kW=3.0 kvar=0.0
New Load.trip_load_675_A_h_35 Bus1=trip_load_675_A_h_35.1.0 phases=1 Conn=Wye kV=0.12 kW=3.0 kvar=0.0
New Load.trip_load_675_A_h_36 Bus1=trip_load_675_A_h_36.1.0 phases=1 Conn=Wye kV=0.12 kW=3.0 kvar=0.0
New Load.trip_load_675_A_h_37 Bus1=trip_load_675_A_h_37.1.0 phases=1 Conn=Wye kV=0.12 kW=3.0 kvar=0.0
New Load.trip_load_675_A_h_38 Bus1=trip_load_675_A_h_38.1.0 phases=1 Conn=Wye kV=0.12 kW=3.0 kvar=0.0
New Load.trip_load_675_A_h_39 Bus1=trip_load_675_A_h_39.1.0 phases=1 Conn=Wye kV=0.12 kW=3.0 kvar=0.0
New Load.trip_load_675_A_h_40 Bus1=trip_load_675_A_h_40.1.0 phases=1 Conn=Wye kV=0.12 kW=3.0 kvar=0.0
...
